%chk=ru4co.chk
# b3lyp/3-21g symmetry=none

Title Card Required

0 1
 Ru                 0.31227559    1.07676582    1.24000037
 Ru                -1.71264455    0.36087648    0.00000001
 Ru                 0.31227559    1.07676625   -1.23999963
 Ru                 0.31224945   -1.07097696    0.00000000
 C                 -3.45937394    1.35537960    0.00000002
 O                 -3.97351622    2.49764122    0.12027740


