%chk=sih3h.chk
#p svwn5/6-31g* guess=core

Title Card Required

0 1
 Si                 0.00000000    0.00000000    0.00000000
 H                  0.00000000    0.00000000    1.47000000
 H                  1.38592930    0.00000000   -0.48999998
 H                 -0.69296463   -1.20024998   -0.49000002
 H                 -1.88561815    3.26598629   -1.33333333


