%chk=sih3h.chk
#p svwn/6-31g* symmetry=none

Title Card Required

0 1
 Si                -1.55096010   -0.68685376    0.00000000
 H                 -1.06097692   -2.07278899    0.00000000
 H                 -1.06095162    0.00610450    1.20025020
 H                 -1.06095162    0.00610450   -1.20025020
 H                 -5.55096010   -0.68680447    0.00000000



